PDE 1994  6  9  0 33 16.40,   51.2400  178.7200 0.0 6. 6. FAKE INFO
event name:    C032296A
time shift:        29.0
half duration:     20.0
latitude:       51.2400
longitude:     178.7200
depth:          19.1000
Mrr:         0.8700E+19
Mtt:        -0.9340E+19
Mpp:         0.6400E+18
Mrt:         0.9960E+19
Mrp:         0.4000E+19
Mtp:      -0.184000E+19
