PDE 1994  6  9  0 33 16.40,   43.0800   12.7800 0.0 6. 6. FAKE INFO
event name:    C092697C
time shift:        29.0
half duration:     20.0
latitude:       43.0800
longitude:      12.7800
depth:          15.0000
Mrr:        -0.1070E+19
Mtt:         0.4260E+18
Mpp:         0.6400E+18
Mrt:         0.1760E+18
Mrp:        -0.1610E+18
Mtp:      -0.611000E+18
