PDE 1994  6  9  0 33 16.40,   84.9300   98.6900 0.0 6. 6. FAKE INFO
event name:    D056596A
time shift:        29.0
half duration:     20.0
latitude:       84.9300
longitude:      98.6900
depth:          12.0000
Mrr:        -0.2950E+19
Mtt:         0.1790E+19
Mpp:         0.1160E+19
Mrt:        -0.2500E+18
Mrp:        -0.3600E+18
Mtp:      -0.153000E+19
