PDE 1994  6  9  0 33 16.40,   51.2400  178.7200 0.0 6. 6. FAKE INFO 
event name:    B151GPXA
time shift:        29
half duration:     20
latitude:       -29.6201
longitude:     178.6701
depth:          583.3
Mrr:         -1.62e+16
Mtt:         -3.36e+17
Mpp:         3.52e+17
Mrt:         -1.27e+17
Mrp:         -1.44e+17
Mtp:         -9.47e+16
