PDE 1994  6  9  0 33 16.40,   51.2400  178.7200 0.0 6. 6. FAKE INFO 
event name:    B153HCOA
time shift:        29
half duration:     20
latitude:       -17.28
longitude:     -176.9801
depth:          386.2
Mrr:         -2.93e+17
Mtt:         2.34e+17
Mpp:         5.93e+16
Mrt:         2.58e+17
Mrp:         1.91e+17
Mtp:         -4.48e+17
