PDE 1994  6  9  0 33 16.40,   51.2400  178.7200 0.0 6. 6. FAKE INFO 
event name:    B1578R1A
time shift:        29
half duration:     20
latitude:       -24.28
longitude:     179.0701
depth:          551.6
Mrr:         -5.18e+16
Mtt:         2.3e+15
Mpp:         4.95e+16
Mrt:         -4.25e+17
Mrp:         -5.92e+17
Mtp:         -7.87e+16
