PDE 1994  6  9  0 33 16.40,   51.2400  178.7200 0.0 6. 6. FAKE INFO 
event name:    B1597KSA
time shift:        29
half duration:     20
latitude:       -18.7
longitude:     -177.1001
depth:          367
Mrr:         9.4e+15
Mtt:         3.81e+16
Mpp:         -4.75e+16
Mrt:         -1.6e+17
Mrp:         6.21e+16
Mtp:         -1.25e+17
