PDE 1994  6  9  0 33 16.40,   51.2400  178.7200 0.0 6. 6. FAKE INFO 
event name:    B15CCOAA
time shift:        29
half duration:     20
latitude:       -16.38
longitude:     -177.3201
depth:          423.6
Mrr:         9.85e+16
Mtt:         4.8e+15
Mpp:         -1.03e+17
Mrt:         -5.4e+15
Mrp:         -7.67e+16
Mtp:         -1.86e+16
