PDE 1994  6  9  0 33 16.40,   51.2400  178.7200 0.0 6. 6. FAKE INFO 
event name:    B15HI41A
time shift:        29
half duration:     20
latitude:       -22.12
longitude:     -63.2
depth:          572.6
Mrr:         1.37e+17
Mtt:         -1.1e+16
Mpp:         -1.26e+17
Mrt:         4.3e+15
Mrp:         2.09e+17
Mtp:         5.05e+16
