PDE 1994  6  9  0 33 16.40,   51.2400  178.7200 0.0 6. 6. FAKE INFO 
event name:    B15HK91A
time shift:        29
half duration:     20
latitude:       -17.79
longitude:     -178.5701
depth:          560
Mrr:         2.45e+17
Mtt:         -1.62e+16
Mpp:         -2.29e+17
Mrt:         1.08e+17
Mrp:         -1e+15
Mtp:         1.39e+17
