PDE 1994  6  9  0 33 16.40,   51.2400  178.7200 0.0 6. 6. FAKE INFO 
event name:    B15K9TEA
time shift:        29
half duration:     20
latitude:       27.16
longitude:     140.1901
depth:          317.7
Mrr:         -1.98e+17
Mtt:         2.14e+17
Mpp:         -1.59e+16
Mrt:         -3.95e+17
Mrp:         4.65e+16
Mtp:         1.8e+16
