PDE 1994  6  9  0 33 16.40,   51.2400  178.7200 0.0 6. 6. FAKE INFO 
event name:    B15OHTGA
time shift:        29
half duration:     20
latitude:       -30.19
longitude:     -179.2001
depth:          321.5
Mrr:         -1.06e+17
Mtt:         -5.3e+16
Mpp:         1.59e+17
Mrt:         -1.18e+17
Mrp:         -5.48e+16
Mtp:         1.53e+16
