PDE 1994  6  9  0 33 16.40,   51.2400  178.7200 0.0 6. 6. FAKE INFO 
event name:    C012397B
time shift:        29
half duration:     20
latitude:       -22.04
longitude:     -65.92
depth:          281.6
Mrr:         -1.3e+17
Mtt:         3.2e+17
Mpp:         -1.9e+17
Mrt:         9.55e+18
Mrp:         -5.703e+19
Mtp:         -3.69e+18
