PDE 1994  6  9  0 33 16.40,   51.2400  178.7200 0.0 6. 6. FAKE INFO 
event name:    C020797A
time shift:        29
half duration:     20
latitude:       -19.85
longitude:     -172.8501
depth:          33
Mrr:         4.02e+18
Mtt:         5.04e+17
Mpp:         -4.524e+18
Mrt:         2.057e+18
Mrp:         -9.02e+17
Mtp:         8.9e+16
