PDE 1994  6  9  0 33 16.40,   51.2400  178.7200 0.0 6. 6. FAKE INFO 
event name:    C022098D
time shift:        29
half duration:     20
latitude:       36.5
longitude:     70.88
depth:          243.7
Mrr:         2.068e+18
Mtt:         -9.8e+16
Mpp:         -1.97e+18
Mrt:         -4.08e+17
Mrp:         3.384e+18
Mtp:         1.8e+16
