PDE 1994  6  9  0 33 16.40,   51.2400  178.7200 0.0 6. 6. FAKE INFO 
event name:    C032296A
time shift:        29
half duration:     20
latitude:       51.24
longitude:     178.7201
depth:          19.1
Mrr:         8.704e+18
Mtt:         -9.34e+18
Mpp:         6.36e+17
Mrt:         9.958e+18
Mrp:         3.997e+18
Mtp:         -1.843e+18
