PDE 1994  6  9  0 33 16.40,   51.2400  178.7200 0.0 6. 6. FAKE INFO 
event name:    C032099A
time shift:        29
half duration:     20
latitude:       51.67
longitude:     -177.3001
depth:          43
Mrr:         2.092e+19
Mtt:         -2.201e+19
Mpp:         1.08e+18
Mrt:         1.247e+19
Mrp:         9.66e+18
Mtp:         -5.65e+18
