PDE 1994  6  9  0 33 16.40,   51.2400  178.7200 0.0 6. 6. FAKE INFO 
event name:    C041399B
time shift:        29
half duration:     20
latitude:       -21.54
longitude:     -175.8901
depth:          172.8
Mrr:         -2.26e+18
Mtt:         2.61e+18
Mpp:         -3.5e+17
Mrt:         -4.73e+18
Mrp:         -1.759e+19
Mtp:         4.56e+18
