PDE 1994  6  9  0 33 16.40,   51.2400  178.7200 0.0 6. 6. FAKE INFO 
event name:    C042099D
time shift:        29
half duration:     20
latitude:       -31.7901
longitude:     -178.7901
depth:          104.4
Mrr:         1.808e+18
Mtt:         -1.782e+18
Mpp:         -2.6e+16
Mrt:         -2.567e+18
Mrp:         4.964e+18
Mtp:         7.25e+17
