PDE 1994  6  9  0 33 16.40,   51.2400  178.7200 0.0 6. 6. FAKE INFO 
event name:    C061097B
time shift:        29
half duration:     20
latitude:       -35.9201
longitude:     -107.96
depth:          15
Mrr:         -3.47e+17
Mtt:         4.242e+18
Mpp:         -3.895e+18
Mrt:         4.32e+17
Mrp:         -9.98e+17
Mtp:         -6.021e+18
