PDE 1994  6  9  0 33 16.40,   51.2400  178.7200 0.0 6. 6. FAKE INFO 
event name:    C082798B
time shift:        29
half duration:     20
latitude:       39.51
longitude:     77.22
depth:          32
Mrr:         -3.57e+17
Mtt:         -3.149e+18
Mpp:         3.507e+18
Mrt:         3.11e+17
Mrp:         -7.25e+17
Mtp:         1.858e+18
