PDE 1994  6  9  0 33 16.40,   51.2400  178.7200 0.0 6. 6. FAKE INFO 
event name:    D1510EVA
time shift:        29
half duration:     20
latitude:       -21.96
longitude:     170.6801
depth:          139.4
Mrr:         7.3e+16
Mtt:         -8.24e+16
Mpp:         9.3e+15
Mrt:         1.09e+17
Mrp:         2.04e+16
Mtp:         1.79e+16
