PDE 1994  6  9  0 33 16.40,   51.2400  178.7200 0.0 6. 6. FAKE INFO 
event name:    D152FU1A
time shift:        29
half duration:     20
latitude:       1.23
longitude:     125.0201
depth:          134.9
Mrr:         7.79e+15
Mtt:         -2.52e+16
Mpp:         1.75e+16
Mrt:         -5.85e+16
Mrp:         1.6e+16
Mtp:         -2.03e+16
