PDE 1994  6  9  0 33 16.40,   51.2400  178.7200 0.0 6. 6. FAKE INFO 
event name:    D1524BPA
time shift:        29
half duration:     20
latitude:       -17.68
longitude:     -178.5701
depth:          563.8
Mrr:         6.88e+17
Mtt:         1.01e+17
Mpp:         -7.89e+17
Mrt:         4.44e+17
Mrp:         -3.32e+17
Mtp:         1.6e+17
