PDE 1994  6  9  0 33 16.40,   51.2400  178.7200 0.0 6. 6. FAKE INFO 
event name:    D153FZ4A
time shift:        29
half duration:     20
latitude:       -5.67
longitude:     149.7401
depth:          140.7
Mrr:         -8.09e+16
Mtt:         7.59e+16
Mpp:         5e+15
Mrt:         -9.54e+16
Mrp:         -1.31e+16
Mtp:         1.57e+16
