PDE 1994  6  9  0 33 16.40,   51.2400  178.7200 0.0 6. 6. FAKE INFO 
event name:    D1555K7A
time shift:        29
half duration:     20
latitude:       -22.39
longitude:     171.6601
depth:          116.7
Mrr:         3.71e+16
Mtt:         -5.29e+16
Mpp:         1.58e+16
Mrt:         3.65e+16
Mrp:         2.61e+16
Mtp:         4.09e+16
