PDE 1994  6  9  0 33 16.40,   51.2400  178.7200 0.0 6. 6. FAKE INFO 
event name:    D1588VSA
time shift:        29
half duration:     20
latitude:       -17.29
longitude:     -69.5
depth:          176.3
Mrr:         3e+15
Mtt:         -6.84e+16
Mpp:         6.54e+16
Mrt:         1.7e+17
Mrp:         -3.89e+17
Mtp:         3.25e+16
