PDE 1994  6  9  0 33 16.40,   51.2400  178.7200 0.0 6. 6. FAKE INFO 
event name:    D158I42A
time shift:        29
half duration:     20
latitude:       43.69
longitude:     145.0501
depth:          116.1
Mrr:         -1.2e+16
Mtt:         1.08e+17
Mpp:         -9.56e+16
Mrt:         9.19e+16
Mrp:         1.81e+16
Mtp:         -5.01e+16
