PDE 1994  6  9  0 33 16.40,   51.2400  178.7200 0.0 6. 6. FAKE INFO 
event name:    D15D5ZSA
time shift:        29
half duration:     20
latitude:       55.1
longitude:     111.8601
depth:          13.2
Mrr:         -1.32e+16
Mtt:         2.05e+15
Mpp:         1.12e+16
Mrt:         7.5e+15
Mrp:         -4.62e+15
Mtp:         7.18e+15
