PDE 1994  6  9  0 33 16.40,   51.2400  178.7200 0.0 6. 6. FAKE INFO 
event name:    D15DMBVA
time shift:        29
half duration:     20
latitude:       -21.14
longitude:     -68.51
depth:          139.3
Mrr:         -6.05e+16
Mtt:         2.55e+16
Mpp:         3.5e+16
Mrt:         4.32e+16
Mrp:         -7.9e+15
Mtp:         -6.25e+16
