PDE 1994  6  9  0 33 16.40,   51.2400  178.7200 0.0 6. 6. FAKE INFO 
event name:    D15D1Q3A
time shift:        29
half duration:     20
latitude:       0.11996
longitude:     123.5801
depth:          146.5
Mrr:         1.61e+17
Mtt:         -2.8e+15
Mpp:         -1.58e+17
Mrt:         4.99e+16
Mrp:         -2.55e+16
Mtp:         -9.95e+16
