PDE 1994  6  9  0 33 16.40,   51.2400  178.7200 0.0 6. 6. FAKE INFO 
event name:    D15FAEVA
time shift:        29
half duration:     20
latitude:       -22.0901
longitude:     -176.2501
depth:          175.7
Mrr:         1.21e+16
Mtt:         4.22e+16
Mpp:         -5.43e+16
Mrt:         -6.02e+16
Mrp:         -7.96e+16
Mtp:         1.73e+16
