PDE 1994  6  9  0 33 16.40,   51.2400  178.7200 0.0 6. 6. FAKE INFO 
event name:    D15FKF1A
time shift:        29
half duration:     20
latitude:       -2.61
longitude:     102.14
depth:          158.4
Mrr:         3.82e+17
Mtt:         -1.05e+18
Mpp:         6.67e+17
Mrt:         -9.5e+16
Mrp:         -7.87e+17
Mtp:         -8.06e+17
