PDE 1994  6  9  0 33 16.40,   51.2400  178.7200 0.0 6. 6. FAKE INFO 
event name:    D15G38KA
time shift:        29
half duration:     20
latitude:       -4.09
longitude:     152.0001
depth:          197.8
Mrr:         -3.81e+17
Mtt:         8.72e+17
Mpp:         -4.9e+17
Mrt:         7e+15
Mrp:         -6.75e+17
Mtp:         -9.8e+16
