PDE 1994  6  9  0 33 16.40,   51.2400  178.7200 0.0 6. 6. FAKE INFO 
event name:    D15G6HLA
time shift:        29
half duration:     20
latitude:       -20.42
longitude:     -178.9301
depth:          664.5
Mrr:         1.96e+17
Mtt:         -1.49e+17
Mpp:         -4.7e+16
Mrt:         -1.64e+17
Mrp:         -1.18e+18
Mtp:         -4.08e+17
