PDE 1994  6  9  0 33 16.40,   51.2400  178.7200 0.0 6. 6. FAKE INFO 
event name:    D15HILEA
time shift:        29
half duration:     20
latitude:       -18.05
longitude:     -178.1801
depth:          549.3
Mrr:         -4.97e+17
Mtt:         3.02e+16
Mpp:         4.67e+17
Mrt:         -2.3e+17
Mrp:         -4.37e+17
Mtp:         1.64e+17
