PDE 1994  6  9  0 33 16.40,   51.2400  178.7200 0.0 6. 6. FAKE INFO 
event name:    D15JICKA
time shift:        29
half duration:     20
latitude:       2.02
longitude:     98.94
depth:          130.7
Mrr:         3.03e+16
Mtt:         -6.12e+16
Mpp:         3.09e+16
Mrt:         5.23e+15
Mrp:         -3.93e+16
Mtp:         -3.97e+16
