PDE 1994  6  9  0 33 16.40,   51.2400  178.7200 0.0 6. 6. FAKE INFO 
event name:    D15O9LNA
time shift:        29
half duration:     20
latitude:       36.62
longitude:     26.71
depth:          148.9
Mrr:         -4.4e+14
Mtt:         1.31e+15
Mpp:         -8.7e+14
Mrt:         -4.25e+15
Mrp:         3.82e+16
Mtp:         2.84e+16
