PDE 1994  6  9  0 33 16.40,   51.2400  178.7200 0.0 6. 6. FAKE INFO 
event name:    D15O563A
time shift:        29
half duration:     20
latitude:       -22.71
longitude:     -66.86
depth:          215.4
Mrr:         -8.71e+16
Mtt:         7e+15
Mpp:         8.01e+16
Mrt:         1.8e+15
Mrp:         -7.2e+16
Mtp:         -4.51e+16
