PDE 1994  6  9  0 33 16.40,   51.2400  178.7200 0.0 6. 6. FAKE INFO 
event name:    D15PGCLA
time shift:        29
half duration:     20
latitude:       3.18
longitude:     127.9701
depth:          140.8
Mrr:         9.18e+16
Mtt:         1.28e+17
Mpp:         -2.2e+17
Mrt:         1.17e+17
Mrp:         3.1e+15
Mtp:         9.6e+16
