PDE 1994  6  9  0 33 16.40,   51.2400  178.7200 0.0 6. 6. FAKE INFO 
event name:    D15Q0VWA
time shift:        29
half duration:     20
latitude:       -4.73
longitude:     145.2101
depth:          202.3
Mrr:         -4.49e+16
Mtt:         3.97e+16
Mpp:         5.23e+15
Mrt:         -5.32e+15
Mrp:         -3.03e+16
Mtp:         -2.73e+16
