PDE 1994  6  9  0 33 16.40,   51.2400  178.7200 0.0 6. 6. FAKE INFO 
event name:    D15SFQIA
time shift:        29
half duration:     20
latitude:       -23.84
longitude:     -66.89
depth:          221.4
Mrr:         -9.1e+16
Mtt:         -3.3e+16
Mpp:         1.24e+17
Mrt:         1.1e+17
Mrp:         -1.16e+18
Mtp:         -5.1e+16
