PDE 1994  6  9  0 33 16.40,   51.2400  178.7200 0.0 6. 6. FAKE INFO 
event name:    D15SM9DA
time shift:        29
half duration:     20
latitude:       0.42996
longitude:     122
depth:          130.6
Mrr:         7.08e+17
Mtt:         -6.4e+17
Mpp:         -6.9e+16
Mrt:         -6.09e+17
Mrp:         2e+16
Mtp:         -2.59e+17
