PDE 1994  6  9  0 33 16.40,   51.2400  178.7200 0.0 6. 6. FAKE INFO 
event name:    D15SFNPA
time shift:        29
half duration:     20
latitude:       23.23
longitude:     142.4101
depth:          119.5
Mrr:         2.25e+16
Mtt:         -4.2e+16
Mpp:         1.95e+16
Mrt:         1.93e+16
Mrp:         -1.19e+16
Mtp:         -8.91e+16
