PDE 1994  6  9  0 33 16.40,   51.2400  178.7200 0.0 6. 6. FAKE INFO 
event name:    D15THLLA
time shift:        29
half duration:     20
latitude:       -10.91
longitude:     166.1501
depth:          147.3
Mrr:         9.56e+16
Mtt:         -4.82e+16
Mpp:         -4.74e+16
Mrt:         -1.01e+16
Mrp:         -7.38e+16
Mtp:         6.73e+16
