PDE 1994  6  9  0 33 16.40,   -1.5000  -77.8300 0.0 6. 6. FAKE INFO
event name:    C042699C
time shift:        29.0
half duration:     20.0
latitude:       -1.5000
longitude:     -77.8300
depth:         164.2000
Mrr:        -0.8610E+18
Mtt:         0.1760E+18
Mpp:         0.6850E+18
Mrt:         0.7380E+18
Mrp:        -0.3610E+18
Mtp:      -0.742000E+18
