PDE 1994  6  9  0 33 16.40,   10.9100  -42.0600 0.0 6. 6. FAKE INFO
event name:    C060296D
time shift:        29.0
half duration:     20.0
latitude:       10.9100
longitude:     -42.0600
depth:          15.0000
Mrr:        -0.4000E+18
Mtt:        -0.4600E+19
Mpp:         0.5000E+19
Mrt:         0.1000E+18
Mrp:         0.7700E+19
Mtp:      -0.283000E+20
