PDE 1994  6  9  0 33 16.40,  -20.1400 -127.0100 0.0 6. 6. FAKE INFO
event name:    C071104C
time shift:        29.0
half duration:     20.0
latitude:      -20.1400
longitude:    -127.0100
depth:          14.0000
Mrr:        -0.1620E+19
Mtt:        -0.1200E+18
Mpp:         0.1740E+19
Mrt:        -0.6000E+17
Mrp:         0.5000E+17
Mtp:      -0.400000E+18
