PDE 1994  6  9  0 33 16.40,   19.8300 -155.9400 0.0 6. 6. FAKE INFO
event name:    D06FHSRA
time shift:        29.0
half duration:     20.0
latitude:       19.8300
longitude:    -155.9400
depth:          48.0000
Mrr:        -0.8160E+19
Mtt:         0.8690E+19
Mpp:        -0.5300E+18
Mrt:         0.6300E+18
Mrp:        -0.8180E+19
Mtp:      -0.853000E+19
