PDE 1994  6  9  0 33 16.40,   37.4000  -24.3800 0.0 6. 6. FAKE INFO
event name:    D0777BOA
time shift:        29.0
half duration:     20.0
latitude:       37.4000
longitude:     -24.3800
depth:          12.0000
Mrr:        -0.1690E+19
Mtt:         0.9120E+18
Mpp:         0.7770E+18
Mrt:         0.8400E+17
Mrp:         0.2400E+17
Mtp:      -0.473000E+18
