PDE 1994  6  9  0 33 16.40,   51.2400  178.7200 0.0 6. 6. FAKE INFO 
event name:    B1564R7A
time shift:        29
half duration:     20
latitude:       -24.99
longitude:     179.9301
depth:          492.2
Mrr:         -5.48e+16
Mtt:         3.7e+16
Mpp:         1.78e+16
Mrt:         3.4e+15
Mrp:         -1.78e+17
Mtp:         -1.19e+17
