PDE 1994  6  9  0 33 16.40,   51.2400  178.7200 0.0 6. 6. FAKE INFO 
event name:    B156HYJA
time shift:        29
half duration:     20
latitude:       -18.06
longitude:     -178.6101
depth:          558.3
Mrr:         -5.87e+16
Mtt:         1.88e+17
Mpp:         -1.3e+17
Mrt:         9.48e+16
Mrp:         -2.22e+17
Mtp:         8.84e+16
