PDE 1994  6  9  0 33 16.40,   51.2400  178.7200 0.0 6. 6. FAKE INFO 
event name:    B157KA1A
time shift:        29
half duration:     20
latitude:       -24.4
longitude:     179.1501
depth:          527.1
Mrr:         -8.42e+16
Mtt:         5.13e+16
Mpp:         3.29e+16
Mrt:         -4.36e+16
Mrp:         -1.59e+16
Mtp:         -3.59e+16
