PDE 1994  6  9  0 33 16.40,   51.2400  178.7200 0.0 6. 6. FAKE INFO 
event name:    B158FA2A
time shift:        29
half duration:     20
latitude:       -19.84
longitude:     -177.9501
depth:          566.3
Mrr:         -1.9e+17
Mtt:         1.81e+17
Mpp:         9e+15
Mrt:         -6.36e+16
Mrp:         -1.84e+17
Mtp:         3.7e+16
