PDE 1994  6  9  0 33 16.40,   51.2400  178.7200 0.0 6. 6. FAKE INFO 
event name:    B15LDCQA
time shift:        29
half duration:     20
latitude:       -18.32
longitude:     -178.0801
depth:          499.6
Mrr:         2.63e+17
Mtt:         2.13e+16
Mpp:         -2.84e+17
Mrt:         -4.45e+17
Mrp:         -2.31e+16
Mtp:         1.79e+17
