PDE 1994  6  9  0 33 16.40,   51.2400  178.7200 0.0 6. 6. FAKE INFO 
event name:    B15M59VA
time shift:        29
half duration:     20
latitude:       -17.84
longitude:     -178.4801
depth:          615.8
Mrr:         -8.16e+17
Mtt:         1.3e+18
Mpp:         -4.8e+17
Mrt:         7.7e+16
Mrp:         -8.92e+17
Mtp:         -7.47e+17
