PDE 1994  6  9  0 33 16.40,   51.2400  178.7200 0.0 6. 6. FAKE INFO 
event name:    B15MD5RA
time shift:        29
half duration:     20
latitude:       -17.86
longitude:     -178.2701
depth:          587.9
Mrr:         -1.02e+17
Mtt:         4.8e+15
Mpp:         9.77e+16
Mrt:         -4.6e+16
Mrp:         -6.47e+16
Mtp:         -4.77e+16
