PDE 1994  6  9  0 33 16.40,   51.2400  178.7200 0.0 6. 6. FAKE INFO 
event name:    B15P6FCA
time shift:        29
half duration:     20
latitude:       41.9
longitude:     135.18
depth:          393.4
Mrr:         1.95e+16
Mtt:         -1.1e+16
Mpp:         -8.5e+15
Mrt:         -8.8e+15
Mrp:         -1.06e+17
Mtp:         -2e+15
