PDE 1994  6  9  0 33 16.40,   51.2400  178.7200 0.0 6. 6. FAKE INFO 
event name:    C020497C
time shift:        29
half duration:     20
latitude:       37.82
longitude:     57.5
depth:          15
Mrr:         -1.76e+17
Mtt:         -5.873e+18
Mpp:         6.049e+18
Mrt:         1.488e+18
Mrp:         -2.86e+17
Mtp:         2.709e+18
