PDE 1994  6  9  0 33 16.40,   51.2400  178.7200 0.0 6. 6. FAKE INFO 
event name:    C031498F
time shift:        29
half duration:     20
latitude:       29.95
longitude:     57.6
depth:          15
Mrr:         -2.343e+18
Mtt:         -5.153e+18
Mpp:         7.496e+18
Mrt:         -3.675e+18
Mrp:         -3.254e+18
Mtp:         5.075e+18
