PDE 1994  6  9  0 33 16.40,   51.2400  178.7200 0.0 6. 6. FAKE INFO 
event name:    C040398E
time shift:        29
half duration:     20
latitude:       -7.96
longitude:     -74.48
depth:          153.7
Mrr:         1.157e+18
Mtt:         3.04e+17
Mpp:         -1.462e+18
Mrt:         1.569e+18
Mrp:         -9.084e+18
Mtp:         -1.926e+18
