PDE 1994  6  9  0 33 16.40,   51.2400  178.7200 0.0 6. 6. FAKE INFO 
event name:    C051397C
time shift:        29
half duration:     20
latitude:       36.51
longitude:     70.68
depth:          189.1
Mrr:         4.087e+18
Mtt:         -4.127e+18
Mpp:         4e+16
Mrt:         1.09e+18
Mrp:         2.284e+18
Mtp:         -1.402e+18
