PDE 1994  6  9  0 33 16.40,   51.2400  178.7200 0.0 6. 6. FAKE INFO 
event name:    C052997D
time shift:        29
half duration:     20
latitude:       -36.03
longitude:     -102.41
depth:          15
Mrr:         -6.84e+17
Mtt:         -5.66e+17
Mpp:         1.25e+18
Mrt:         4.09e+17
Mrp:         -9.6e+17
Mtp:         -5.705e+18
