PDE 1994  6  9  0 33 16.40,   51.2400  178.7200 0.0 6. 6. FAKE INFO 
event name:    C102897A
time shift:        29
half duration:     20
latitude:       -4.44
longitude:     -76.55
depth:          118.9
Mrr:         -6.816e+19
Mtt:         6.01e+18
Mpp:         6.214e+19
Mrt:         -7.06e+18
Mrp:         1.524e+19
Mtp:         -2.639e+19
