PDE 1994  6  9  0 33 16.40,   51.2400  178.7200 0.0 6. 6. FAKE INFO 
event name:    D151B6VA
time shift:        29
half duration:     20
latitude:       -12.39
longitude:     166.5901
depth:          167.2
Mrr:         1.17e+17
Mtt:         -2.2e+15
Mpp:         -1.15e+17
Mrt:         1.8e+16
Mrp:         -1.04e+17
Mtp:         9.1e+15
