PDE 1994  6  9  0 33 16.40,   51.2400  178.7200 0.0 6. 6. FAKE INFO 
event name:    D15178LA
time shift:        29
half duration:     20
latitude:       4.84
longitude:     125.82
depth:          105.9
Mrr:         3.46e+16
Mtt:         3.13e+16
Mpp:         -6.59e+16
Mrt:         4.13e+16
Mrp:         2.07e+16
Mtp:         5.97e+16
