PDE 1994  6  9  0 33 16.40,   51.2400  178.7200 0.0 6. 6. FAKE INFO 
event name:    D152A74A
time shift:        29
half duration:     20
latitude:       -32.7701
longitude:     -67.14
depth:          176.8
Mrr:         5.88e+17
Mtt:         -1.6e+16
Mpp:         -5.72e+17
Mrt:         -2.4e+18
Mrp:         -2.07e+18
Mtp:         1.07e+18
