PDE 1994  6  9  0 33 16.40,   51.2400  178.7200 0.0 6. 6. FAKE INFO 
event name:    D159GTDA
time shift:        29
half duration:     20
latitude:       0.05996
longitude:     123.9701
depth:          105.1
Mrr:         2.96e+16
Mtt:         3.41e+15
Mpp:         -3.3e+16
Mrt:         6.74e+15
Mrp:         1e+16
Mtp:         -1.46e+16
