PDE 1994  6  9  0 33 16.40,   51.2400  178.7200 0.0 6. 6. FAKE INFO 
event name:    D15AH4FA
time shift:        29
half duration:     20
latitude:       -21.57
longitude:     -68.69
depth:          132.4
Mrr:         -1.39e+17
Mtt:         6.97e+16
Mpp:         6.94e+16
Mrt:         1.18e+16
Mrp:         -9.16e+16
Mtp:         -8.51e+16
