PDE 1994  6  9  0 33 16.40,   51.2400  178.7200 0.0 6. 6. FAKE INFO 
event name:    D15BD5QA
time shift:        29
half duration:     20
latitude:       -23.5
longitude:     -66.84
depth:          219.5
Mrr:         -8.85e+16
Mtt:         -6.6e+15
Mpp:         9.5e+16
Mrt:         4.59e+16
Mrp:         -1.9e+17
Mtp:         -3.73e+16
