PDE 1994  6  9  0 33 16.40,   51.2400  178.7200 0.0 6. 6. FAKE INFO 
event name:    D15DEMYA
time shift:        29
half duration:     20
latitude:       -3.97
longitude:     152.8201
depth:          140.4
Mrr:         -1.18e+17
Mtt:         -1.66e+17
Mpp:         2.84e+17
Mrt:         -2.89e+17
Mrp:         8.76e+16
Mtp:         -1.15e+17
