PDE 1994  6  9  0 33 16.40,   51.2400  178.7200 0.0 6. 6. FAKE INFO 
event name:    D15DKKGA
time shift:        29
half duration:     20
latitude:       -55.9101
longitude:     -27.91
depth:          132.6
Mrr:         6.42e+16
Mtt:         -4.93e+16
Mpp:         -1.49e+16
Mrt:         -4.93e+16
Mrp:         1.09e+16
Mtp:         4.6e+16
