PDE 1994  6  9  0 33 16.40,   51.2400  178.7200 0.0 6. 6. FAKE INFO 
event name:    D15FLH9A
time shift:        29
half duration:     20
latitude:       4.1
longitude:     125.9501
depth:          137
Mrr:         7.89e+16
Mtt:         3e+17
Mpp:         -3.79e+17
Mrt:         -2.57e+17
Mrp:         3.13e+17
Mtp:         -1.35e+17
