PDE 1994  6  9  0 33 16.40,   51.2400  178.7200 0.0 6. 6. FAKE INFO 
event name:    D15G6TNA
time shift:        29
half duration:     20
latitude:       55.67
longitude:     159.3701
depth:          283.9
Mrr:         -2.81e+17
Mtt:         -9.5e+15
Mpp:         2.91e+17
Mrt:         9.12e+16
Mrp:         -2.43e+17
Mtp:         3.69e+16
