PDE 1994  6  9  0 33 16.40,   51.2400  178.7200 0.0 6. 6. FAKE INFO 
event name:    D15G1ETA
time shift:        29
half duration:     20
latitude:       -7.81
longitude:     -74.42
depth:          160.7
Mrr:         -4.22e+16
Mtt:         -3.25e+15
Mpp:         4.54e+16
Mrt:         -9.22e+15
Mrp:         5.53e+15
Mtp:         -3.63e+15
