PDE 1994  6  9  0 33 16.40,   51.2400  178.7200 0.0 6. 6. FAKE INFO 
event name:    D15I8HXA
time shift:        29
half duration:     20
latitude:       21.73
longitude:     143.0201
depth:          285.9
Mrr:         5e+16
Mtt:         -6.01e+16
Mpp:         1.01e+16
Mrt:         -3.12e+15
Mrp:         2.8e+16
Mtp:         1.25e+16
