PDE 1994  6  9  0 33 16.40,   51.2400  178.7200 0.0 6. 6. FAKE INFO 
event name:    D15LLHXA
time shift:        29
half duration:     20
latitude:       -20.34
longitude:     -178.3601
depth:          571.1
Mrr:         -8.12e+17
Mtt:         -3.03e+17
Mpp:         1.12e+18
Mrt:         -4.21e+17
Mrp:         -4.77e+17
Mtp:         -2.88e+17
