PDE 1994  6  9  0 33 16.40,   51.2400  178.7200 0.0 6. 6. FAKE INFO 
event name:    D15LFZJA
time shift:        29
half duration:     20
latitude:       -4.5
longitude:     151.9801
depth:          163.4
Mrr:         -1.19e+17
Mtt:         1.44e+17
Mpp:         -2.48e+16
Mrt:         3.16e+16
Mrp:         -1.52e+17
Mtp:         2.92e+17
