PDE 1994  6  9  0 33 16.40,   51.2400  178.7200 0.0 6. 6. FAKE INFO 
event name:    D15LJ6WA
time shift:        29
half duration:     20
latitude:       -5.52
longitude:     147.1401
depth:          221.2
Mrr:         1.08e+17
Mtt:         -1.57e+17
Mpp:         4.87e+16
Mrt:         7.51e+16
Mrp:         -7.29e+16
Mtp:         5.91e+16
