PDE 1994  6  9  0 33 16.40,   51.2400  178.7200 0.0 6. 6. FAKE INFO 
event name:    D15MBICA
time shift:        29
half duration:     20
latitude:       -21.7
longitude:     -68.34
depth:          149
Mrr:         -4.67e+16
Mtt:         8.28e+15
Mpp:         3.84e+16
Mrt:         1.19e+16
Mrp:         -1.28e+16
Mtp:         -2.13e+16
