PDE 1994  6  9  0 33 16.40,   51.2400  178.7200 0.0 6. 6. FAKE INFO 
event name:    D15SDWJA
time shift:        29
half duration:     20
latitude:       3.84
longitude:     127.1301
depth:          101.7
Mrr:         -1.91e+17
Mtt:         1.76e+17
Mpp:         1.53e+16
Mrt:         1.89e+16
Mrp:         2.64e+16
Mtp:         -6.1e+16
