PDE 1994  6  9  0 33 16.40,   51.2400  178.7200 0.0 6. 6. FAKE INFO 
event name:    D15SGCJA
time shift:        29
half duration:     20
latitude:       -20.79
longitude:     -178.7101
depth:          591.4
Mrr:         -9.64e+17
Mtt:         8.55e+17
Mpp:         1.1e+17
Mrt:         -1.05e+18
Mrp:         -1e+18
Mtp:         -1.36e+17
