PDE 1994  6  9  0 33 16.40,   51.2400  178.7200 0.0 6. 6. FAKE INFO 
event name:    D15SJ6HA
time shift:        29
half duration:     20
latitude:       -56.4501
longitude:     -26.64
depth:          101.4
Mrr:         9.81e+15
Mtt:         1.93e+16
Mpp:         -2.91e+16
Mrt:         -7.7e+16
Mrp:         4.22e+16
Mtp:         1.47e+16
