PDE 1994  6  9  0 33 16.40,   51.2400  178.7200 0.0 6. 6. FAKE INFO 
event name:    D15S243A
time shift:        29
half duration:     20
latitude:       -20.97
longitude:     -178.2301
depth:          487.5
Mrr:         -1.51e+18
Mtt:         -1.5e+17
Mpp:         1.66e+18
Mrt:         -1.32e+18
Mrp:         -7.68e+17
Mtp:         -6.17e+17
