PDE 1994  6  9  0 33 16.40,   51.2400  178.7200 0.0 6. 6. FAKE INFO 
event name:    D15UGPVA
time shift:        29
half duration:     20
latitude:       -56.2201
longitude:     -27.47
depth:          113.3
Mrr:         2.35e+17
Mtt:         1.02e+17
Mpp:         -3.38e+17
Mrt:         -1.99e+17
Mrp:         2.48e+17
Mtp:         -6.6e+15
